Version 4
SHEET 1 880 680
WIRE 176 64 144 64
WIRE 272 64 176 64
WIRE 288 64 272 64
WIRE 304 64 288 64
WIRE 400 64 304 64
WIRE 432 64 400 64
WIRE 144 80 144 64
WIRE 272 80 272 64
WIRE 400 80 400 64
WIRE 96 96 64 96
WIRE 176 128 176 64
WIRE 176 128 144 128
WIRE 304 128 304 64
WIRE 304 128 272 128
WIRE 432 128 432 64
WIRE 432 128 400 128
WIRE 64 192 64 96
WIRE 64 192 32 192
WIRE 144 192 144 176
WIRE 272 192 272 176
WIRE 272 192 144 192
WIRE 400 192 400 176
WIRE 400 192 272 192
WIRE 224 208 224 96
WIRE 224 208 80 208
WIRE 352 208 352 96
WIRE 352 208 240 208
WIRE 80 224 80 208
WIRE 80 224 32 224
WIRE 272 224 272 192
WIRE 416 224 272 224
WIRE 240 240 240 208
WIRE 240 240 96 240
WIRE 272 240 272 224
WIRE 96 256 96 240
WIRE 96 256 32 256
WIRE 320 288 272 288
WIRE 64 320 64 192
WIRE 224 320 64 320
WIRE 320 384 320 288
WIRE 320 384 272 384
WIRE 80 416 80 224
WIRE 224 416 80 416
WIRE 320 480 320 384
WIRE 320 480 272 480
WIRE 96 512 96 256
WIRE 224 512 96 512
WIRE 320 528 320 480
WIRE 320 528 272 528
WIRE 272 560 272 528
FLAG 272 560 VSS
FLAG 288 64 VDD
FLAG 416 224 OUT
FLAG 32 192 A
FLAG 32 224 B
FLAG 32 256 C
SYMBOL cmosp 96 176 M180
SYMATTR InstName M1
SYMATTR Value2 l=180n w=5u
SYMBOL cmosp 224 176 M180
SYMATTR InstName M2
SYMATTR Value2 l=180n w=5u
SYMBOL cmosp 352 176 M180
SYMATTR InstName M3
SYMATTR Value2 l=180n w=5u
SYMBOL cmosn 224 240 R0
SYMATTR InstName M4
SYMATTR Value2 l=180n w=3u
SYMBOL cmosn 224 336 R0
SYMATTR InstName M5
SYMATTR Value2 l=180n w=3u
SYMBOL cmosn 224 432 R0
SYMATTR InstName M6
SYMATTR Value2 l=180n w=3u
