Version 4
SHEET 1 916 680
WIRE -64 -48 -128 -48
WIRE 32 -48 -16 -48
WIRE 192 112 192 64
WIRE 192 112 128 112
WIRE 864 112 864 80
WIRE 864 112 800 112
WIRE -32 128 -32 112
WIRE -32 128 -64 128
WIRE 64 128 64 112
WIRE 80 128 64 128
WIRE 592 128 592 112
WIRE 592 128 560 128
WIRE 688 128 688 112
WIRE 720 128 688 128
WIRE 752 128 720 128
WIRE -32 144 -32 128
WIRE 64 144 64 128
WIRE 176 144 128 144
WIRE 592 144 592 128
WIRE 688 144 688 128
WIRE 848 144 800 144
WIRE 720 240 720 128
WIRE 896 240 720 240
WIRE -208 320 -208 304
WIRE -208 320 -240 320
WIRE -112 320 -112 304
WIRE -64 320 -64 128
WIRE -64 320 -112 320
WIRE 64 320 -64 320
WIRE -208 336 -208 320
WIRE -112 336 -112 320
WIRE 176 336 176 144
WIRE 176 336 112 336
WIRE 224 336 176 336
WIRE 336 336 288 336
WIRE 432 336 432 320
WIRE 432 336 400 336
WIRE 528 336 528 320
WIRE 560 336 560 128
WIRE 560 336 528 336
WIRE 672 336 560 336
WIRE 64 352 0 352
WIRE 432 352 432 336
WIRE 528 352 528 336
WIRE 848 352 848 144
WIRE 848 352 720 352
WIRE 896 352 848 352
WIRE 672 368 608 368
WIRE 0 400 0 352
WIRE 608 400 608 368
FLAG -192 256 CLK
FLAG 48 192 CLK
FLAG 672 192 CLK
FLAG 512 400 CLK
FLAG -16 64 CLKB
FLAG -128 384 CLKB
FLAG 448 272 CLKB
FLAG 608 64 CLKB
FLAG 864 80 SET
FLAG 0 400 SET
FLAG 192 64 RST
FLAG 608 400 RST
FLAG -240 320 D
FLAG 64 368 0
FLAG 672 384 0
FLAG 128 160 0
FLAG 800 160 0
FLAG 128 96 VDD
FLAG 64 304 VDD
FLAG 672 320 VDD
FLAG 896 352 Q
FLAG 896 240 QB
FLAG 800 96 VDD
FLAG 32 -48 CLKB
FLAG -128 -48 CLK
FLAG -48 -64 VDD
FLAG -48 -32 0
FLAG -224 96 0
FLAG -224 16 VDD
FLAG 16 144 0
FLAG -160 336 0
FLAG 480 352 0
FLAG 640 144 0
FLAG 16 112 VDD
FLAG -160 304 VDD
FLAG 480 320 VDD
FLAG 640 112 VDD
SYMBOL cmosn -32 192 R270
SYMATTR InstName M2
SYMATTR Value2 l=180n w=1u
SYMBOL cmosp 64 64 R90
SYMATTR InstName M1
SYMATTR Value2 l=180n w=5u
SYMBOL cmosn -208 384 R270
SYMATTR InstName M3
SYMATTR Value2 l=180n w=1u
SYMBOL cmosp -112 256 R90
SYMATTR InstName M4
SYMATTR Value2 l=180n w=5u
SYMBOL cmosn 432 400 R270
SYMATTR InstName M5
SYMATTR Value2 l=180n w=1u
SYMBOL cmosp 528 272 R90
SYMATTR InstName M6
SYMATTR Value2 l=180n w=5u
SYMBOL cmosn 592 192 R270
SYMATTR InstName M7
SYMATTR Value2 l=180n w=1u
SYMBOL cmosp 688 64 R90
SYMATTR InstName M8
SYMATTR Value2 l=180n w=5u
SYMBOL NOR_x1 16 336 R0
SYMATTR InstName X1
SYMBOL NOR_x1 176 128 M0
SYMATTR InstName X2
SYMBOL NOR_x1 848 128 M0
SYMATTR InstName X3
SYMBOL NOR_x1 624 352 R0
SYMATTR InstName X4
SYMBOL inv_x1 -32 -48 R0
SYMATTR InstName X5
SYMBOL voltage -224 0 R0
WINDOW 123 0 0 Left 0
WINDOW 39 0 0 Left 0
SYMATTR InstName V1
SYMATTR Value 1
SYMBOL Digital\\inv 224 272 R0
SYMATTR InstName A1
SYMATTR SpiceLine Trise 1n Tfall 1n
SYMBOL Digital\\inv 336 272 R0
SYMATTR InstName A2
SYMATTR SpiceLine Trise 1n Tfall 1n
