Version 4
SHEET 1 880 680
WIRE 112 160 48 160
WIRE 128 160 112 160
WIRE 272 160 240 160
WIRE 352 160 272 160
WIRE 48 192 48 160
FLAG 176 208 0
FLAG 48 272 0
FLAG 176 112 VDD
FLAG 16 128 0
FLAG 16 48 VDD
FLAG 112 160 in
FLAG 352 160 out
FLAG 272 224 0
SYMBOL voltage 48 176 R0
WINDOW 123 0 0 Left 0
WINDOW 39 0 0 Left 0
SYMATTR InstName V1
SYMATTR Value PULSE(0 1.2 0 1f 1f 1m 2m)
SYMBOL voltage 16 32 R0
SYMATTR InstName VDD
SYMATTR Value 1.2
SYMBOL inv_x1 176 160 R0
SYMATTR InstName X2
SYMBOL cap 256 160 R0
SYMATTR InstName C1
SYMATTR Value 10f
TEXT -16 296 Left 2 !.tran 4m
TEXT 96 16 Left 2 !.include tsmc018.lib
