Version 4
SHEET 1 880 680
WIRE 160 128 128 128
WIRE 320 144 272 144
WIRE 160 160 128 160
FLAG 208 192 0
FLAG 128 128 A
FLAG 128 160 B
FLAG 432 160 0
FLAG 432 80 VDD
FLAG 208 96 VDD
FLAG 352 208 A
FLAG 512 272 B
FLAG 352 288 0
FLAG 512 352 0
FLAG 272 208 0
FLAG 320 144 out
SYMBOL NAND_x1 208 144 R0
SYMATTR InstName X1
SYMBOL voltage 432 64 R0
WINDOW 123 0 0 Left 0
WINDOW 39 0 0 Left 0
SYMATTR InstName V3
SYMATTR Value 1.2
SYMBOL voltage 352 192 R0
WINDOW 123 0 0 Left 0
WINDOW 39 0 0 Left 0
SYMATTR InstName V1
SYMATTR Value PULSE(1.2 0 0 1f 1f 2m 4m)
SYMBOL voltage 512 256 R0
WINDOW 123 0 0 Left 0
WINDOW 39 0 0 Left 0
SYMATTR InstName V2
SYMATTR Value PULSE(1.2 0 0 1f 1f 1m 2m)
SYMBOL cap 256 144 R0
SYMATTR InstName C1
SYMATTR Value 1f
TEXT 14 312 Left 2 !.tran 8m
TEXT 16 344 Left 2 !.include tsmc018.lib
