Version 4
SHEET 1 880 680
FLAG 160 144 A
FLAG 160 176 B
FLAG 208 112 VDD
FLAG 272 160 out
FLAG 208 208 0
FLAG -48 272 0
FLAG 64 320 0
FLAG -48 192 A
FLAG 64 240 B
FLAG 432 128 VDD
FLAG 432 208 0
SYMBOL NOR_x1 160 160 R0
SYMATTR InstName X1
SYMBOL voltage -48 176 R0
WINDOW 123 0 0 Left 0
WINDOW 39 0 0 Left 0
SYMATTR InstName V1
SYMATTR Value PULSE(1.2 0 0 1f 1f 2m 4m)
SYMBOL voltage 64 224 R0
WINDOW 123 0 0 Left 0
WINDOW 39 0 0 Left 0
SYMATTR InstName V2
SYMATTR Value PULSE(1.2 0 0 1f 1f 1m 2m)
SYMBOL voltage 432 112 R0
WINDOW 123 0 0 Left 0
WINDOW 39 0 0 Left 0
SYMATTR InstName V3
SYMATTR Value 1.2
TEXT -82 340 Left 2 !.tran 8m
TEXT -80 376 Left 2 !.include tsmc018.lib
