Version 4
SHEET 1 880 680
WIRE 96 32 80 32
WIRE 144 32 96 32
WIRE 208 32 144 32
WIRE 224 32 208 32
WIRE 32 48 16 48
WIRE 96 80 96 32
WIRE 96 80 80 80
WIRE 224 80 224 32
WIRE 224 80 208 80
WIRE 160 96 160 48
WIRE 160 96 112 96
WIRE 16 128 16 48
WIRE 16 128 -48 128
WIRE 144 128 80 128
WIRE 208 128 144 128
WIRE 0 160 -48 160
WIRE 112 160 112 96
WIRE 112 160 0 160
WIRE 144 160 144 128
WIRE 224 160 144 160
WIRE 176 208 144 208
WIRE 16 240 16 128
WIRE 96 240 16 240
WIRE 160 304 144 304
WIRE 0 336 0 160
WIRE 96 336 0 336
WIRE 160 352 160 304
WIRE 160 352 144 352
WIRE 176 352 176 208
WIRE 176 352 160 352
WIRE 144 368 144 352
FLAG 144 368 VSS
FLAG 144 32 VDD
FLAG 224 160 OUT
FLAG -48 128 A
FLAG -48 160 B
SYMBOL cmosn 96 160 R0
SYMATTR InstName M1
SYMATTR Value2 l=180nm w=2um
SYMBOL cmosn 96 256 R0
SYMATTR InstName M2
SYMATTR Value2 l=180nm w=2um
SYMBOL cmosp 160 128 M180
SYMATTR InstName M3
SYMATTR Value2 l=180nm w=5um
SYMBOL cmosp 32 128 M180
SYMATTR InstName M4
SYMATTR Value2 l=180nm w=5um
