Version 4
SHEET 1 880 680
WIRE 304 -64 288 -64
WIRE 336 -64 304 -64
WIRE 288 -48 288 -64
WIRE 240 -32 144 -32
WIRE 336 0 336 -64
WIRE 336 0 288 0
WIRE 240 64 224 64
WIRE 144 80 144 -32
WIRE 144 80 112 80
WIRE 336 96 336 0
WIRE 336 96 288 96
WIRE 224 112 224 64
WIRE 224 112 112 112
WIRE 224 160 224 112
WIRE 272 160 224 160
WIRE 288 160 288 144
WIRE 400 160 288 160
WIRE 288 176 288 160
WIRE 288 176 224 176
WIRE 352 176 288 176
WIRE 240 224 224 224
WIRE 368 224 352 224
WIRE 144 256 144 80
WIRE 176 256 144 256
WIRE 272 256 272 160
WIRE 304 256 272 256
WIRE 224 288 224 272
WIRE 240 288 240 224
WIRE 240 288 224 288
WIRE 288 288 240 288
WIRE 352 288 352 272
WIRE 352 288 288 288
WIRE 368 288 368 224
WIRE 368 288 352 288
FLAG 304 -64 VDD
FLAG 112 80 A
FLAG 112 112 B
FLAG 400 160 OUT
FLAG 288 288 VSS
SYMBOL cmosn 176 176 R0
SYMATTR InstName M1
SYMATTR Value2 l=180n w=1u
SYMBOL cmosn 304 176 R0
SYMATTR InstName M2
SYMATTR Value2 l=180n w=1u
SYMBOL cmosp 240 144 M180
SYMATTR InstName M3
SYMATTR Value2 l=180n w=10u
SYMBOL cmosp 240 48 M180
SYMATTR InstName M4
SYMATTR Value2 l=180n w=10u
